Version 4
SHEET 1 1244 784
WIRE 704 96 352 96
WIRE 816 96 704 96
WIRE 944 96 816 96
WIRE 816 128 816 96
WIRE 352 192 352 96
WIRE 512 240 464 240
WIRE 816 240 816 208
WIRE 816 240 592 240
WIRE 704 320 704 96
WIRE 944 320 944 96
WIRE 672 336 624 336
WIRE 816 352 816 240
WIRE 816 352 736 352
WIRE 64 368 -80 368
WIRE 128 368 64 368
WIRE 208 368 128 368
WIRE 352 368 352 272
WIRE 352 368 272 368
WIRE 464 368 464 240
WIRE 464 368 352 368
WIRE 672 368 464 368
WIRE -80 448 -80 368
WIRE 64 464 64 368
WIRE 128 464 128 368
WIRE 352 464 352 368
WIRE 704 480 704 384
WIRE 736 480 736 368
WIRE 736 480 704 480
WIRE 800 480 736 480
WIRE 624 560 624 336
WIRE 656 560 624 560
WIRE 816 560 816 352
WIRE 816 560 736 560
WIRE 624 624 624 560
WIRE -80 768 -80 528
WIRE 64 768 64 528
WIRE 64 768 -80 768
WIRE 128 768 128 528
WIRE 128 768 64 768
WIRE 352 768 352 544
WIRE 352 768 128 768
WIRE 624 768 624 688
WIRE 624 768 352 768
WIRE 800 768 800 480
WIRE 800 768 624 768
WIRE 944 768 944 400
WIRE 944 768 800 768
FLAG 352 768 0
SYMBOL voltage 944 304 R0
SYMATTR InstName V1
SYMATTR Value 5
SYMBOL res 800 112 R0
SYMATTR InstName R1
SYMATTR Value 1000
SYMBOL res 608 224 R90
WINDOW 0 0 56 VBottom 2
WINDOW 3 32 56 VTop 2
SYMATTR InstName R2
SYMATTR Value 100K
SYMBOL res 336 176 R0
SYMATTR InstName R3
SYMATTR Value 100K
SYMBOL res 336 448 R0
SYMATTR InstName R4
SYMATTR Value 100K
SYMBOL res 640 576 R270
WINDOW 0 32 56 VTop 2
WINDOW 3 0 56 VBottom 2
SYMATTR InstName R5
SYMATTR Value 47K
SYMBOL cap 608 624 R0
SYMATTR InstName C1
SYMATTR Value 10µ
SYMBOL cap 272 352 R90
WINDOW 0 0 32 VBottom 2
WINDOW 3 32 32 VTop 2
SYMATTR InstName C2
SYMATTR Value 10µ
SYMBOL cap 80 528 R180
WINDOW 0 24 56 Left 2
WINDOW 3 24 8 Left 2
SYMATTR InstName C3
SYMATTR Value 1n
SYMBOL ind -96 432 R0
SYMATTR InstName L1
SYMATTR Value 82µ
SYMBOL occomp 704 288 R0
SYMATTR InstName U2
SYMBOL cap 112 464 R0
SYMATTR InstName C4
SYMATTR Value 10n
TEXT -48 112 Left 2 !.TRAN 1u 3000u 2990u
